34

 K   19     -0.0000000000  -0.0000000000   0.0047446309      0.0000000     0.0000000    -0.0441290
 O    8     -2.2400104341  -1.2644671407   0.5478915292      0.0072356     0.0201574     0.0239757
 O    8      2.2150658832  -1.3076723703   0.5478915292     -0.0210746    -0.0038125     0.0239757
 O    8      0.0249445509   2.5721395110   0.5478915292      0.0138391    -0.0163449     0.0239757
 C    6     -3.0014109874  -0.6232948656  -0.5028234679      0.0157215    -0.0262381     0.0020445
 C    6      2.0404946813  -2.2876507295  -0.5028234679      0.0148621     0.0267343     0.0020445
 C    6      0.9609163061   2.9109455951  -0.5028234679     -0.0305836    -0.0004962     0.0020445
 C    6     -2.9908264275   0.9064209372  -0.2541727426      0.0151290     0.0254548     0.0047514
 C    6      0.7104296556  -3.0433421331  -0.2541727426     -0.0296090     0.0003747     0.0047514
 C    6      2.2803967719   2.1369211959  -0.2541727426      0.0144800    -0.0258295     0.0047514
 O    8     -1.6224072113   1.3207127799  -0.3891018601      0.0728421    -0.0671956     0.0047690
 O    8     -0.3325672128  -2.0654022502  -0.3891018601      0.0217721     0.0966810     0.0047690
 O    8      1.9549744241   0.7446894703  -0.3891018601     -0.0946142    -0.0294853     0.0047690
 C    6     -1.3371785998   2.6366203836   0.1080387516     -0.0003086    -0.0074120    -0.0170251
 C    6     -1.6147909324  -2.4763408286   0.1080387516      0.0065732     0.0034388    -0.0170251
 C    6      2.9519695322  -0.1602795550   0.1080387516     -0.0062647     0.0039732    -0.0170251
 H    1     -4.0330857112  -0.9941451840  -0.4983491208     -0.0101749    -0.0026881    -0.0018899
 H    1      2.8774978400  -2.9956820896  -0.4983491208      0.0074154    -0.0074677    -0.0018899
 H    1      1.1555878712   3.9898272736  -0.4983491208      0.0027595     0.0101557    -0.0018899
 H    1     -2.5614059324  -0.8213239965  -1.4849514352      0.0014815     0.0002152    -0.0086103
 H    1      1.9919904119  -1.8075806086  -1.4849514352     -0.0009271     0.0011754    -0.0086103
 H    1      0.5694155205   2.6289046051  -1.4849514352     -0.0005544    -0.0013906    -0.0086103
 H    1     -3.3745086795   1.1263871520   0.7488979952     -0.0069054     0.0017401     0.0077110
 H    1      0.7117744516  -3.4856038177   0.7488979952      0.0019457    -0.0068503     0.0077110
 H    1      2.6627342279   2.3592166657   0.7488979952      0.0049597     0.0051102     0.0077110
 H    1     -3.6332348825   1.4036464250  -0.9907992749     -0.0074507     0.0037877    -0.0048958
 H    1      0.6010239793  -3.8482969187  -0.9907992749      0.0004451    -0.0083463    -0.0048958
 H    1      3.0322109032   2.4446504937  -0.9907992749      0.0070056     0.0045586    -0.0048958
 H    1     -1.9559721762   2.8765095843   0.9872683141     -0.0093864     0.0071369     0.0120376
 H    1     -1.5131442861  -3.1321763858   0.9872683141     -0.0014875    -0.0116974     0.0120376
 H    1      3.4691164623   0.2556668015   0.9872683141      0.0108740     0.0045604     0.0120376
 H    1     -1.4985719566   3.4024795792  -0.6677985656     -0.0056299     0.0123000    -0.0081584
 H    1     -2.1973477731  -2.9990411734  -0.6677985656     -0.0078372    -0.0110256    -0.0081584
 H    1      3.6959197297  -0.4034384058  -0.6677985656      0.0134671    -0.0012744    -0.0081584
